data/mat/ieee24.m
function mpc = ieee24

%ieee24 MATPOWER case generated from D:/codex/elec_power_flow/hybrid_power_system_analysis/data/model/ac/ieee24.e

% Auto-generated by scripts/generate_matpower_cases.py.

% ZIP loads are exported as static P/Q at V=1; zero-impedance ties are bus-collapsed.

mpc.version = '2';

mpc.baseMVA = 100;

mpc.bus = [
	1	2	108	22	0	0	1	1	0	138	1	1.2	0.8;
	2	2	97	20	0	0	1	1	0	138	1	1.2	0.8;
	3	1	180	37	0	0	1	1	0	138	1	1.2	0.8;
	4	1	74	15	0	0	1	1	0	138	1	1.2	0.8;
	5	1	71	14	0	0	1	1	0	138	1	1.2	0.8;
	6	1	136	28	0	-100	1	1	0	138	1	1.2	0.8;
	7	2	125	25	0	0	1	1	0	138	1	1.2	0.8;
	8	1	171	35	0	0	1	1	0	138	1	1.2	0.8;
	9	1	175	36	0	0	1	1	0	138	1	1.2	0.8;
	10	1	195	40	0	0	1	1	0	138	1	1.2	0.8;
	11	1	0	0	0	0	1	1	0	230	1	1.2	0.8;
	12	1	0	0	0	0	1	1	0	230	1	1.2	0.8;
	13	3	265	54	0	0	1	1	0	230	1	1.2	0.8;
	14	2	194	39	0	0	1	1	0	230	1	1.2	0.8;
	15	2	317	64	0	0	1	1	0	230	1	1.2	0.8;
	16	2	100	20	0	0	1	1	0	230	1	1.2	0.8;
	17	1	0	0	0	0	1	1	0	230	1	1.2	0.8;
	18	2	333	68	0	0	1	1	0	230	1	1.2	0.8;
	19	1	181	37	0	0	1	1	0	230	1	1.2	0.8;
	20	1	128	26	0	0	1	1	0	230	1	1.2	0.8;
	21	2	0	0	0	0	1	1	0	230	1	1.2	0.8;
	22	2	0	0	0	0	1	1	0	230	1	1.2	0.8;
	23	2	0	0	0	0	1	1	0	230	1	1.2	0.8;
	24	1	0	0	0	0	1	1	0	230	1	1.2	0.8;
];

mpc.gen = [
	1	10	0	1000000000	-1000000000	1.035	100	1	1000000000	-1000000000	0	0	0	0	0	0	0	0	0	0	0;
	1	10	0	1000000000	-1000000000	1.035	100	1	1000000000	-1000000000	0	0	0	0	0	0	0	0	0	0	0;
	1	76	0	1000000000	-1000000000	1.035	100	1	1000000000	-1000000000	0	0	0	0	0	0	0	0	0	0	0;
	1	76	0	1000000000	-1000000000	1.035	100	1	1000000000	-1000000000	0	0	0	0	0	0	0	0	0	0	0;
	2	10	0	1000000000	-1000000000	1.035	100	1	1000000000	-1000000000	0	0	0	0	0	0	0	0	0	0	0;
	2	10	0	1000000000	-1000000000	1.035	100	1	1000000000	-1000000000	0	0	0	0	0	0	0	0	0	0	0;
	2	76	0	1000000000	-1000000000	1.035	100	1	1000000000	-1000000000	0	0	0	0	0	0	0	0	0	0	0;
	2	76	0	1000000000	-1000000000	1.035	100	1	1000000000	-1000000000	0	0	0	0	0	0	0	0	0	0	0;
	7	80	0	1000000000	-1000000000	1.025	100	1	1000000000	-1000000000	0	0	0	0	0	0	0	0	0	0	0;
	7	80	0	1000000000	-1000000000	1.025	100	1	1000000000	-1000000000	0	0	0	0	0	0	0	0	0	0	0;
	7	80	0	1000000000	-1000000000	1.025	100	1	1000000000	-1000000000	0	0	0	0	0	0	0	0	0	0	0;
	13	95.09999999999999	0	1000000000	-1000000000	1.02	100	1	1000000000	-1000000000	0	0	0	0	0	0	0	0	0	0	0;
	13	95.09999999999999	0	1000000000	-1000000000	1.02	100	1	1000000000	-1000000000	0	0	0	0	0	0	0	0	0	0	0;
	13	95.09999999999999	0	1000000000	-1000000000	1.02	100	1	1000000000	-1000000000	0	0	0	0	0	0	0	0	0	0	0;
	14	0	35.3	1000000000	-1000000000	0.98	100	1	1000000000	-1000000000	0	0	0	0	0	0	0	0	0	0	0;
	15	12	0	1000000000	-1000000000	1.014	100	1	1000000000	-1000000000	0	0	0	0	0	0	0	0	0	0	0;
	15	12	0	1000000000	-1000000000	1.014	100	1	1000000000	-1000000000	0	0	0	0	0	0	0	0	0	0	0;
	15	12	0	1000000000	-1000000000	1.014	100	1	1000000000	-1000000000	0	0	0	0	0	0	0	0	0	0	0;
	15	12	0	1000000000	-1000000000	1.014	100	1	1000000000	-1000000000	0	0	0	0	0	0	0	0	0	0	0;
	15	12	0	1000000000	-1000000000	1.014	100	1	1000000000	-1000000000	0	0	0	0	0	0	0	0	0	0	0;
	15	155	0	1000000000	-1000000000	1.014	100	1	1000000000	-1000000000	0	0	0	0	0	0	0	0	0	0	0;
	16	155	0	1000000000	-1000000000	1.017	100	1	1000000000	-1000000000	0	0	0	0	0	0	0	0	0	0	0;
	18	400	0	1000000000	-1000000000	1.05	100	1	1000000000	-1000000000	0	0	0	0	0	0	0	0	0	0	0;
	21	400	0	1000000000	-1000000000	1.05	100	1	1000000000	-1000000000	0	0	0	0	0	0	0	0	0	0	0;
	22	50	0	1000000000	-1000000000	1.05	100	1	1000000000	-1000000000	0	0	0	0	0	0	0	0	0	0	0;
	22	50	0	1000000000	-1000000000	1.05	100	1	1000000000	-1000000000	0	0	0	0	0	0	0	0	0	0	0;
	22	50	0	1000000000	-1000000000	1.05	100	1	1000000000	-1000000000	0	0	0	0	0	0	0	0	0	0	0;
	22	50	0	1000000000	-1000000000	1.05	100	1	1000000000	-1000000000	0	0	0	0	0	0	0	0	0	0	0;
	22	50	0	1000000000	-1000000000	1.05	100	1	1000000000	-1000000000	0	0	0	0	0	0	0	0	0	0	0;
	22	50	0	1000000000	-1000000000	1.05	100	1	1000000000	-1000000000	0	0	0	0	0	0	0	0	0	0	0;
	23	155	0	1000000000	-1000000000	1.05	100	1	1000000000	-1000000000	0	0	0	0	0	0	0	0	0	0	0;
	23	155	0	1000000000	-1000000000	1.05	100	1	1000000000	-1000000000	0	0	0	0	0	0	0	0	0	0	0;
	23	350	0	1000000000	-1000000000	1.05	100	1	1000000000	-1000000000	0	0	0	0	0	0	0	0	0	0	0;
];

mpc.branch = [
	1	2	0.0026	0.0139	0.4611	0	0	0	0	0	1	-360	360;
	1	3	0.0546	0.2112	0.0572	0	0	0	0	0	1	-360	360;
	1	5	0.0218	0.08450000000000001	0.0229	0	0	0	0	0	1	-360	360;
	2	4	0.0328	0.1267	0.0343	0	0	0	0	0	1	-360	360;
	2	6	0.0497	0.192	0.052	0	0	0	0	0	1	-360	360;
	3	9	0.0308	0.119	0.0322	0	0	0	0	0	1	-360	360;
	4	9	0.0268	0.1037	0.0281	0	0	0	0	0	1	-360	360;
	5	10	0.0228	0.0883	0.0239	0	0	0	0	0	1	-360	360;
	6	10	0.0139	0.0605	2.459	0	0	0	0	0	1	-360	360;
	7	8	0.0159	0.0614	0.0166	0	0	0	0	0	1	-360	360;
	8	9	0.0427	0.1651	0.0447	0	0	0	0	0	1	-360	360;
	8	10	0.0427	0.1651	0.0447	0	0	0	0	0	1	-360	360;
	11	13	0.0061	0.0476	0.0999	0	0	0	0	0	1	-360	360;
	11	14	0.0054	0.0418	0.08790000000000001	0	0	0	0	0	1	-360	360;
	12	13	0.0061	0.0476	0.0999	0	0	0	0	0	1	-360	360;
	12	23	0.0124	0.09660000000000001	0.203	0	0	0	0	0	1	-360	360;
	13	23	0.0111	0.08649999999999999	0.1818	0	0	0	0	0	1	-360	360;
	14	16	0.005	0.0389	0.0818	0	0	0	0	0	1	-360	360;
	15	16	0.0022	0.0173	0.0364	0	0	0	0	0	1	-360	360;
	15	21	0.0063	0.049	0.103	0	0	0	0	0	1	-360	360;
	15	21	0.0063	0.049	0.103	0	0	0	0	0	1	-360	360;
	15	24	0.0067	0.0519	0.1091	0	0	0	0	0	1	-360	360;
	16	17	0.0033	0.0259	0.0545	0	0	0	0	0	1	-360	360;
	16	19	0.003	0.0231	0.0485	0	0	0	0	0	1	-360	360;
	17	18	0.0018	0.0144	0.0303	0	0	0	0	0	1	-360	360;
	17	22	0.0135	0.1053	0.2212	0	0	0	0	0	1	-360	360;
	18	21	0.0033	0.0259	0.0545	0	0	0	0	0	1	-360	360;
	18	21	0.0033	0.0259	0.0545	0	0	0	0	0	1	-360	360;
	19	20	0.0051	0.0396	0.0833	0	0	0	0	0	1	-360	360;
	19	20	0.0051	0.0396	0.0833	0	0	0	0	0	1	-360	360;
	20	23	0.0028	0.0216	0.0455	0	0	0	0	0	1	-360	360;
	20	23	0.0028	0.0216	0.0455	0	0	0	0	0	1	-360	360;
	21	22	0.008699999999999999	0.0678	0.1424	0	0	0	0	0	1	-360	360;
	3	24	0.0023	0.0839	0	0	0	0	1.03	0	1	-360	360;
	9	11	0.0023	0.0839	0	0	0	0	1.03	0	1	-360	360;
	9	12	0.0023	0.0839	0	0	0	0	1.03	0	1	-360	360;
	10	11	0.0023	0.0839	0	0	0	0	1.02	0	1	-360	360;
	10	12	0.0023	0.0839	0	0	0	0	1.02	0	1	-360	360;
];
